[General]
network = ned.pfssim_1
cpu-time-limit = 36000s
sim-time-limit = 500s

**.numClients = 32
**.numDservers = 4
**.numProxies = 4
**.proxy[*].numApps = 2
**.c[*].application.trace_count = 1

include ini/pfs.ini

include ini/time_overhead.ini

include ini/io.ini

include ini/proxy.ini

include ini/vfs_and_lfs.ini

include ini/diskcache.ini

include ini/disk.ini
