[General]
network = ned.pfssim_1
cpu-time-limit = 36000s
sim-time-limit = 500s

**.numClients = 16
**.numDservers = 8
**.numProxies = 8
**.numMetaServer = 1
**.proxy[*].numApps = 2
**.c[*].application.trace_count = 2

include ini/pfs.ini

include ini/time_overhead.ini

include ini/io.ini

include ini/proxy.ini

include ini/vfs_and_lfs.ini

include ini/diskcache.ini

include ini/disk.ini
